
     RDKit          2D

 29 28  0  0  0  0  0  0  0  0999 V2000
    1.3433    0.2640    0.0000 C   0  0  0  0  0  0  0  0  0  0  0  0
    3.9419   -0.2268    0.0000 C   0  0  0  0  0  0  0  0  0  0  0  0
    2.2099   -0.2336    0.0000 C   0  0  0  0  0  0  0  0  0  0  0  0
    4.8067    0.2760    0.0000 C   0  0  0  0  0  0  0  0  0  0  0  0
    0.4781   -0.2388    0.0000 N   0  0  0  0  0  0  0  0  0  0  0  0
    3.0761    0.2696    0.0000 N   0  0  0  0  0  0  0  0  0  0  0  0
    2.2139   -1.2336    0.0000 O   0  0  0  0  0  0  0  0  0  0  0  0
    4.8033    1.2758    0.0000 O   0  0  0  0  0  0  0  0  0  0  0  0
    5.6747   -0.2212    0.0000 O   0  0  0  0  0  0  0  0  0  0  0  0
    1.3397    1.2634    0.0000 C   0  0  0  0  0  0  0  0  0  0  0  0
    0.4715    1.7602    0.0000 C   0  0  0  0  0  0  0  0  0  0  0  0
    0.4677    2.7602    0.0000 C   0  0  0  0  0  0  0  0  0  0  0  0
   -0.4001    3.2570    0.0000 C   0  0  0  0  0  0  0  0  0  0  0  0
   -0.4037    4.2570    0.0000 N   0  0  0  0  0  0  0  0  0  0  0  0
   -0.3885    0.2566    0.0000 C   0  0  0  0  0  0  0  0  0  0  0  0
   -0.3927    1.2570    0.0000 O   0  0  0  0  0  0  0  0  0  0  0  0
   -1.2521   -0.2460    0.0000 C   0  0  0  0  0  0  0  0  0  0  0  0
   -1.2495   -1.2470    0.0000 N   0  0  0  0  0  0  0  0  0  0  0  0
   -2.1209    0.2512    0.0000 C   0  0  0  0  0  0  0  0  0  0  0  0
   -2.1139   -1.7484    0.0000 C   0  0  0  0  0  0  0  0  0  0  0  0
   -2.9853   -0.2522    0.0000 C   0  0  0  0  0  0  0  0  0  0  0  0
   -2.9819   -1.2518    0.0000 O   0  0  0  0  0  0  0  0  0  0  0  0
   -2.1099   -2.7494    0.0000 C   0  0  0  0  0  0  0  0  0  0  0  0
   -3.8533    0.2448    0.0000 C   0  0  0  0  0  0  0  0  0  0  0  0
   -2.9761   -3.2518    0.0000 N   0  0  0  0  0  0  0  0  0  0  0  0
   -1.2425   -3.2460    0.0000 C   0  0  0  0  0  0  0  0  0  0  0  0
   -4.7175   -0.2584    0.0000 C   0  0  0  0  0  0  0  0  0  0  0  0
   -5.5853    0.2386    0.0000 N   0  0  0  0  0  0  0  0  0  0  0  0
    3.9459   -1.2272    0.0000 C   0  0  0  0  0  0  0  0  0  0  0  0
  4  8  2  0
  4  9  1  0
  2  4  1  0
  2  6  1  0
  3  6  1  0
  3  7  2  0
  1  3  1  0
  1  5  1  0
  1 10  1  1
 10 11  1  0
 11 12  1  0
 12 13  1  0
 13 14  1  0
 15  5  1  0
 15 16  2  0
 17 15  1  0
 17 18  1  0
 17 19  1  1
 20 18  1  0
 19 21  1  0
 20 22  2  0
 23 20  1  0
 21 24  1  0
 23 25  1  0
 23 26  1  6
 24 27  1  0
 27 28  1  0
  2 29  1  6
M  END

